16
5960
O      0.876500   -1.747700    0.461200
O     -2.546800    0.208500   -1.011000
O      2.007900   -0.589100   -1.127200
O     -1.802100   -0.779200    0.898700
N      1.744500    1.678800    0.405500
C      0.727200    0.637500    0.549900
C     -0.595700    1.115900   -0.061300
C      1.274800   -0.598000   -0.147000
C     -1.686400    0.073200    0.031200
H      0.605100    0.415800    1.616600
H     -0.439100    1.353000   -1.121900
H     -0.955300    2.020300    0.442600
H      2.593200    1.399200    0.896500
H      1.424700    2.534100    0.858600
H      1.240300   -2.541700    0.014600
H     -3.266500   -0.457300   -0.979700
