23
6140
O     -1.560600   -1.548000   -1.037200
O     -3.186300   -1.023600    0.455400
N     -2.794500    1.632600   -0.111800
C     -0.609000    0.981200    0.790500
C     -1.665200    0.724100   -0.295700
C      0.759300    0.461200    0.414100
C      1.108200   -0.835500    0.753700
C      1.637000    1.291300   -0.263300
C     -2.225900   -0.685900   -0.224900
C      2.370800   -1.315700    0.406200
C      2.899600    0.810900   -0.610900
C      3.266500   -0.492500   -0.276100
H     -0.918000    0.537800    1.747100
H     -0.516100    2.058900    0.985900
H     -1.265400    0.894300   -1.302000
H      0.419300   -1.484000    1.287200
H      1.359500    2.306800   -0.530700
H     -2.474400    2.596800   -0.197700
H     -3.158700    1.545000    0.836800
H      2.656700   -2.330500    0.667200
H      3.597000    1.451600   -1.142800
H      4.249600   -0.866500   -0.546800
H     -1.936200   -2.453100   -0.995600
