17
6267
O      0.699900   -1.590900    0.895600
O      2.018900   -0.916700   -0.820300
O     -2.145400   -0.609800   -1.060300
N      1.780500    1.683400    0.085400
N     -2.103200    0.156500    1.108100
C      0.699000    0.743600    0.390600
C     -0.517400    1.066600   -0.479700
C      1.227500   -0.645700    0.074000
C     -1.659700    0.113000   -0.193400
H      0.482200    0.812700    1.461100
H     -0.869100    2.088900   -0.294500
H     -0.273200    0.986700   -1.546600
H      2.035600    1.619300   -0.899400
H      2.613500    1.440300    0.620000
H     -1.715500    0.790500    1.799000
H     -2.866000   -0.437000    1.417000
H      1.034100   -2.488200    0.682300
