20
5961
O     -2.138900    1.637000    0.509900
O     -2.677300    0.247500   -1.197300
O      2.903900    0.255100    1.035100
N     -1.478900   -1.892200   -0.029100
N      3.244100    0.193200   -1.238500
C      0.133800   -0.235500    0.875800
C     -1.342400   -0.608600    0.659000
C      1.003200   -0.145800   -0.383900
C     -2.115800    0.435600   -0.125700
C      2.468300    0.113600   -0.105100
H      0.190400    0.723600    1.407100
H      0.578300   -0.976400    1.554500
H     -1.831900   -0.704100    1.635500
H      0.950000   -1.082100   -0.950900
H      0.633900    0.656800   -1.033100
H     -1.136000   -1.818600   -0.985800
H     -2.464800   -2.142000   -0.098800
H      2.856000    0.078000   -2.169300
H      4.241400    0.369700   -1.178100
H     -2.645000    2.308100    0.004100
