19
6287
O     -1.545000   -1.473300   -0.263400
O     -1.730800    0.376300    1.030100
N     -0.256100    1.767300   -0.856900
C      1.380400    0.013000   -0.230700
C     -0.046400    0.324300   -0.744500
C      1.731800   -1.477400   -0.162600
C      1.651800    0.683800    1.120000
C     -1.185800   -0.213900    0.108000
H      2.084300    0.457100   -0.949500
H     -0.159200   -0.097100   -1.751600
H      1.556700   -1.958500   -1.130400
H      1.128800   -1.994800    0.590500
H      2.786600   -1.616800    0.096700
H      0.988600    0.297000    1.900700
H      2.682400    0.493100    1.440300
H      1.528700    1.770100    1.071700
H     -1.141500    1.950700   -1.327900
H      0.467900    2.174100   -1.448100
H     -2.274800   -1.822800    0.291200
