24
6057
O     -1.772700   -1.631300   -0.993100
O      4.218300   -0.635100   -0.394700
O     -3.480100   -1.158400    0.423400
N     -3.238700    1.494700   -0.235100
C     -1.049300    1.021000    0.763300
C     -2.047900    0.655300   -0.345800
C      0.361800    0.577400    0.452900
C      0.780300   -0.679800    0.855300
C      1.207700    1.437300   -0.227600
C     -2.519700   -0.784600   -0.237800
C      2.082700   -1.089100    0.569000
C      2.510100    1.028000   -0.514100
C      2.947600   -0.235300   -0.115800
H     -1.363100    0.594500    1.726100
H     -1.032200    2.108900    0.919000
H     -1.624600    0.813500   -1.344500
H      0.115800   -1.351200    1.391400
H      0.875200    2.421700   -0.544000
H     -2.977700    2.473700   -0.348600
H     -3.629700    1.419000    0.703800
H      2.411400   -2.075400    0.885300
H      3.179000    1.697300   -1.048200
H     -2.091200   -2.556800   -0.928200
H      4.349400   -1.533900   -0.046700
